data_CSD_CIF_MOLDRAW
_audit_creation_date 08-23-2013
_audit_creation_method MOLDRAW
_chemical_formula_sum 'H102 O335 Si142'
_chemical_formula_moiety
;
H102 O335 Si142
;
loop_
_publ_author_name
Piero Ugliengo Dip. Chimica University of Torino
_cell_volume 17419.6748
_exptl_crystal_density_diffrn ?
_diffrn_ambient_temperature ?
_refine_ls_R_factor_gt ?
_refine_ls_wR_factor_gt ?
_symmetry_space_group_name_H-M 'P 1'
_symmetry_cell_setting hexagonal
_symmetry_Int_Tables_number 1
loop_
_symmetry_equiv_pos_site_id
_symmetry_equiv_pos_as_xyz
1 x,y,z
_cell_length_a  40.603039
_cell_length_b  40.603039
_cell_length_c  12.200913
_cell_angle_alpha  90
_cell_angle_beta  90
_cell_angle_gamma  120
_cell_formula_units_Z 1
loop_
_atom_type_symbol
_atom_type_radius_bond
H  .38
O  .73
Si 1.1
loop_
_atom_site_label
_atom_site_type_symbol
_atom_site_fract_x
_atom_site_fract_y
_atom_site_fract_z
H1   H     0.144001292366   0.335769847764   0.646943345323   
H2   H     0.126961694606   0.236343989470   0.303532849993   
H3   H     0.022443898457   0.027119128436   0.213606207883   
H4   H     0.378499099648   0.362911135582   0.640400026308   
H5   H     0.137270105763   0.033679424628   0.240363504157   
H6   H     0.269274436053   0.217699843556   0.241231893402   
H7   H     0.199080898940   0.338425704641   0.291040888568   
H8   H     0.296168711146   0.458228876605   0.264637701873   
H9   H     0.188160610655   0.131618967057   0.789326058178   
H10   H     0.429386974834   0.397887877224   0.512100859405   
H11   H     0.245994363793   0.168282475162   0.870825956161   
H12   H     0.103953235023   0.225066257038   0.516927840897   
H13   H     0.285184946357   0.493389152206   0.366116137427   
H14   H     0.335348471726   0.291584560015   0.553642472091   
H15   H     0.014060616316   0.999436631617   0.723375520876   
H16   H     0.140950590715   0.328681338995   0.208223565534   
H17   H     0.183248559339   0.621027799809   0.710367792976   
H18   H     0.170395530422   0.577013426596   0.518687802446   
H19   H     0.017367156500   0.788258383417   0.845776634446   
H20   H     0.376669987700   0.778610457112   0.903991735838   
H21   H     0.174506340636   0.623150569997   0.421687220469   
H22   H     0.355232735058   0.816634757086   0.289577787010   
H23   H     0.106754389062   0.959340044556   0.452039156241   
H24   H     0.080200286675   0.747761150127   0.406327938852   
H25   H     0.434577910489   0.805553668614   0.642633275019   
H26   H     0.241552471769   0.557574747317   0.612523976539   
H27   H     0.466142657922   0.753315527001   0.302426233573   
H28   H     0.023972642432   0.648905144258   0.118278696001   
H29   H     0.231078585705   0.908750312801   0.358091855257   
H30   H     0.276055288821   0.527888773078   0.229337015690   
H31   H     0.076715858053   0.623493607092   0.852946898444   
H32   H     0.060478188213   0.659149452999   0.760286137551   
H33   H     0.017636943096   0.706113901804   0.200869892604   
H34   H     0.274859386322   0.817483803401   0.890629495720   
H35   H     0.150381094326   0.658903802135   0.343181934515   
H36   H     0.060337436026   0.757913480335   0.588181536820   
H37   H     0.266377889604   0.789380659397   0.044481026553   
H38   H     0.250958327265   0.597344036811   0.925367444833   
H39   H     0.501797406834   0.735189753697   0.981150492126   
H40   H     0.260699634235   0.610557368275   0.670725836574   
H41   H     0.099854177017   0.671846898298   0.356736601910   
H42   H     0.579098059432   0.550040549133   0.042352975331   
H43   H     0.544695378124   0.555069776496   0.496569545911   
H44   H     0.811823614152   0.947252292405   0.193975703013   
H45   H     0.642766296711   0.830830465327   0.623489402491   
H46   H     0.825761282722   0.984770095567   0.631689601627   
H47   H     0.580042000579   0.766479203190   0.375002336469   
H48   H     0.909642310502   0.727259556011   0.690891520631   
H49   H     0.727409980471   0.675232121486   0.265419265119   
H50   H     0.520557033895   0.775055314368   0.153116078003   
H51   H     0.568824865085   0.551577404096   0.809068364407   
H52   H     0.778735177399   0.885742854702   0.450112493902   
H53   H     0.551462108168   0.758505583405   0.562349009381   
H54   H     0.781760745611   0.911159730766   0.855717937451   
H55   H     0.678744351434   0.643824352397   0.879754764024   
H56   H     0.725278831240   0.644445047724   0.794106957005   
H57   H     0.863725577009   0.943110667029   0.844363541176   
H58   H     0.595191075716   0.578538152732   0.207246646395   
H59   H     0.839188294891   0.706869215262   0.071682799113   
H60   H     0.444153096810   0.435316416493   0.923564779171   
H61   H     0.973671184063   0.789934727225   0.757146366982   
H62   H     0.955875891359   0.023858651114   0.000658398088   
H63   H     0.979547454123   0.968319787919   0.974367876768   
H64   H     0.978613938661   0.021957489900   0.319423943874   
H65   H     0.197993595029   0.155727480326   0.969475078406   
H66   H     0.429934025606   0.779510642162   0.995608393045   
H67   H     0.171127625344   0.644263712352   0.986363552611   
H68   H     0.205771983119   0.983535918121   0.071382741775   
H69   H     0.698608779050   0.706878977449   0.901087625927   
H70   H     0.999142773736   0.999346994821   0.499885812532   
H71   H     0.994896385152   0.122316336487   0.109545418762   
H72   H     0.976934302651   0.773388172145   0.993176722784   
H73   H     0.053118776723   0.181991095674   0.452858618003   
H74   H     0.161556088599   0.386820148962   0.883357984978   
H75   H     0.400796076837   0.358380531294   0.946871338176   
H76   H     0.056644992289   0.156483117905   0.804968965295   
H77   H     0.324115311008   0.201510170370   0.678070200772   
H78   H     0.082418833509   0.233673654196   0.027042241951   
H79   H     0.222906394934   0.697086697032   0.286753848556   
H80   H     0.316392501441   0.899972439168   0.693258405620   
H81   H     0.259516465234   0.535966540511   0.766651371321   
H82   H     0.039161920864   0.714890332537   0.850981314410   
H83   H     0.648214818934   0.872604291301   0.297852847826   
H84   H     0.749651306345   0.658756131835   0.967131152116   
H85   H     0.156607144895   0.986315832515   0.970452074040   
H86   H     0.179907018812   0.000601838730   0.554830578048   
H87   H     0.338144630098   0.301918748242   0.065504528353   
H88   H     0.044794597803   0.595845135483   0.138363718844   
H89   H     0.268728030035   0.551333569800   0.037778218496   
H90   H     0.249031099963   0.915485953990   0.124630986937   
H91   H     0.908070102022   0.753368600943   0.018904215797   
H92   H     0.131126708392   0.321463622702   0.852085940719   
H93   H     0.011950727817   0.035705575360   0.887463627935   
H94   H     0.719078459945   0.863477484550   0.913817325540   
H95   H     0.638689686056   0.824122224665   0.834760213449   
H96   H     0.982518480889   0.108534243313   0.314812199407   
H97   H     0.992622831406   0.749032497285   0.287486476749   
H98   H     0.123302127550   0.008669435896   0.033208042303   
H99   H     0.223966004497   0.229629231981   0.294523514494   
H100   H     0.227633471017   0.789182383811   0.188494427720   
H101   H     0.293113341310   0.844058319507   0.562982952662   
H102   H     0.792213156707   0.714808132303   0.503691214749   
O1   O     0.255654708789   0.428197297429   0.963753500909   
O2   O     0.285116508566   0.416263793290   0.677411693505   
O3   O     0.263736159277   0.338363416412   0.986501058710   
O4   O     0.175184383626   0.247894999871   0.930664752580   
O5   O     0.194560345725   0.355847039065   0.009110892623   
O6   O     0.208836900053   0.241923889987   0.544168219343   
O7   O     0.394260015814   0.486191738274   0.184651125224   
O8   O     0.319093320028   0.493263643565   0.996618803343   
O9   O     0.120090899718   0.108327129109   0.663487115896   
O10   O     0.058701999513   0.031261163109   0.025920681182   
O11   O     0.390130228542   0.438020281598   0.496096901494   
O12   O     0.131274515335   0.132311781961   0.454858585478   
O13   O     0.142117367131   0.280859874133   0.037005238246   
O14   O     0.320729722346   0.391157503613   0.239501641811   
O15   O     0.278040989248   0.318110698903   0.185034947911   
O16   O     0.147147446194   0.223109340002   0.132176633706   
O17   O     0.075883990329   0.161389790262   0.966755622703   
O18   O     0.011654398383   0.992703085220   0.557136870593   
O19   O     0.310338577226   0.427492269779   0.075100266671   
O20   O     0.167020655201   0.293855767392   0.530768135014   
O21   O     0.156494712325   0.328079895775   0.699946693842   
O22   O     0.112806459893   0.015494307740   0.096776863457   
O23   O     0.132674673210   0.246578586426   0.377160256722   
O24   O     0.067691740719   0.099551460735   0.063413751344   
O25   O     0.343076869583   0.488861330414   0.682145451939   
O26   O     0.223466392753   0.168806349896   0.001083184454   
O27   O     0.454196949298   0.481351596319   0.113341156018   
O28   O     0.253315429050   0.225178310581   0.664364844966   
O29   O     0.243088722556   0.242194074090   0.351190045860   
O30   O     0.124177730342   0.218315642538   0.765029706169   
O31   O     0.012963917857   0.040789199161   0.170333573584   
O32   O     0.414989829285   0.441722014017   0.288789502292   
O33   O     0.137275521262   0.158825208990   0.037954190418   
O34   O     0.185913947424   0.285289944061   0.742212344809   
O35   O     0.390769077733   0.390368024431   0.649097532281   
O36   O     0.192804791801   0.223346819218   0.755086675643   
O37   O     0.385191287918   0.425380747470   0.082640261665   
O38   O     0.133224249655   0.041533778994   0.312177212560   
O39   O     0.070668695965   0.128294958504   0.353422990871   
O40   O     0.265589089453   0.203579845705   0.174073840551   
O41   O     0.210572962506   0.284881743097   0.380457563298   
O42   O     0.075193647739   0.030873336978   0.438742275957   
O43   O     0.062044415841   0.013111039661   0.230445225049   
O44   O     0.065401846868   0.166329847490   0.182173894446   
O45   O     0.099864784346   0.118620434598   0.863232368273   
O46   O     0.183418183741   0.170584155243   0.608143274581   
O47   O     0.118324830103   0.171336662163   0.605507789569   
O48   O     0.284802227840   0.357636264550   0.778694749526   
O49   O     0.174158755639   0.320640770339   0.320521600433   
O50   O     0.103752779863   0.055987418481   0.816215732956   
O51   O     0.138280558376   0.163392640507   0.258327487871   
O52   O     0.229133583776   0.346497517632   0.628945089099   
O53   O     0.284148722949   0.430994767432   0.276703667763   
O54   O     0.463155434194   0.481506351087   0.454171928567   
O55   O     0.259317317317   0.245340750957   0.011647208913   
O56   O     0.207147621744   0.290454357844   0.115136495300   
O57   O     0.250986785654   0.364912412758   0.171338633903   
O58   O     0.078382376820   0.010618205447   0.641648474786   
O59   O     0.298854159638   0.241348235444   0.839977117598   
O60   O     0.229751503078   0.372668909604   0.821925699390   
O61   O     0.290300654775   0.301519188147   0.867597609481   
O62   O     0.167078513940   0.124573282928   0.839495892858   
O63   O     0.356134252839   0.430812051701   0.687425492124   
O64   O     0.431157587019   0.405421693737   0.436013605884   
O65   O     0.249661403438   0.168727927752   0.791303193776   
O66   O     0.322599779744   0.443894824945   0.861201119902   
O67   O     0.101291509879   0.086228876174   0.288135215522   
O68   O     0.084886113357   0.211173989064   0.573088177624   
O69   O     0.327326729937   0.372333270020   0.538303546011   
O70   O     0.304480801509   0.508261536111   0.312069058516   
O71   O     0.274164888647   0.301075724937   0.489635601385   
O72   O     0.201155023965   0.205189344484   0.145563814365   
O73   O     0.005344319100   0.138896309133   0.046213228748   
O74   O     0.345209248853   0.318523295693   0.543881117632   
O75   O     0.028585196492   0.006642808033   0.791691503616   
O76   O     0.132729654883   0.334122910355   0.139145348913   
O77   O     0.337124791330   0.372743628629   0.938281177580   
O78   O     0.330212603873   0.339032171075   0.348336879854   
O79   O     0.350584391154   0.352770374472   0.137332784466   
O80   O     0.049842779034   0.829818177678   0.588175326718   
O81   O     0.324811280933   0.602141848417   0.589858497655   
O82   O     0.165376525276   0.920764722570   0.396125448812   
O83   O     0.076623592575   0.741160320033   0.061334258141   
O84   O     0.486544205036   0.701204357688   0.458129259236   
O85   O     0.191782785227   0.741853290742   0.940189271116   
O86   O     0.381152207614   0.639833598005   0.221939830567   
O87   O     0.205197771649   0.855968099793   0.966145952561   
O88   O     0.239135471330   0.764519871939   0.574252315984   
O89   O     0.452347987474   0.532508758691   0.562005886041   
O90   O     0.016751920109   0.821256787019   0.176421764046   
O91   O     0.363085750843   0.578899516817   0.345549616410   
O92   O     0.169451255761   0.614991165385   0.641910160052   
O93   O     0.456485202462   0.709000619623   0.647670584174   
O94   O     0.307364060288   0.667685397130   0.086662062422   
O95   O     0.183542842387   0.578817189104   0.450322089483   
O96   O     0.324627152554   0.668875838626   0.875205775657   
O97   O     0.379355196380   0.540302503698   0.117490877722   
O98   O     0.381446004723   0.669023334913   0.643141302577   
O99   O     0.016929384057   0.794664719304   0.768626142405   
O100   O     0.396497638536   0.774825988357   0.873015473981   
O101   O     0.161248398883   0.636391655090   0.445683243666   
O102   O     0.155847782918   0.906601894568   0.964014885772   
O103   O     0.162924986453   0.781232253739   0.015288081384   
O104   O     0.297088505739   0.665402279811   0.300029406340   
O105   O     0.160871946635   0.726261915775   0.142901394893   
O106   O     0.088686473121   0.682919781094   0.004862147041   
O107   O     0.369631556477   0.807878376411   0.248271357720   
O108   O     0.188310914034   0.804105893999   0.538768230109   
O109   O     0.148478257956   0.809661534039   0.703799781481   
O110   O     0.435572424627   0.774114651098   0.069063235281   
O111   O     0.224446057192   0.925302100161   0.889480371171   
O112   O     0.443816423359   0.546961121809   0.768528759293   
O113   O     0.003519131573   0.778977958233   0.990528192666   
O114   O     0.431012090102   0.508221512396   0.951915604285   
O115   O     0.377613008522   0.523099832162   0.326008672072   
O116   O     0.162450573076   0.876424163972   0.778065726906   
O117   O     0.298339960810   0.711382830326   0.452874617604   
O118   O     0.448798579142   0.641773389573   0.927011038289   
O119   O     0.129645401239   0.958272653356   0.437135287154   
O120   O     0.150909029105   0.740277186060   0.425097410215   
O121   O     0.479491415730   0.604505623160   0.627119841431   
O122   O     0.091359140806   0.822089852780   0.750164792988   
O123   O     0.197750744548   0.652223139311   0.976266789576   
O124   O     0.086513377053   0.742148069337   0.478091579256   
O125   O     0.444425338967   0.560928422620   0.218090294595   
O126   O     0.428103081810   0.677831108391   0.057061444153   
O127   O     0.280944359889   0.737675853359   0.661922390043   
O128   O     0.283665684753   0.770576931333   0.406138008003   
O129   O     0.407529712084   0.793255736953   0.654636269050   
O130   O     0.145413693935   0.698852551201   0.783304923542   
O131   O     0.338787595325   0.522568598349   0.500583511713   
O132   O     0.140380743258   0.919775632772   0.598358309443   
O133   O     0.259115706893   0.602394073410   0.185858955183   
O134   O     0.081065482645   0.919217884571   0.898947152316   
O135   O     0.130486377802   0.653770547704   0.078879272890   
O136   O     0.227722538348   0.570962137224   0.595221251070   
O137   O     0.183525657642   0.771032040829   0.740014912947   
O138   O     0.490906525629   0.755983501148   0.316106256260   
O139   O     0.221278670656   0.732611304905   0.767904184473   
O140   O     0.413028598898   0.735534748329   0.736585849579   
O141   O     0.035610016702   0.885573101648   0.530952520817   
O142   O     0.418156847748   0.679140272533   0.835029077675   
O143   O     0.312533145322   0.600863277405   0.316147077829   
O144   O     0.241146631288   0.656432688349   0.154056379811   
O145   O     0.225208734899   0.786278733415   0.384499041619   
O146   O     0.483966030822   0.546652490288   0.363015752215   
O147   O     0.387161498657   0.537289956843   0.901435045770   
O148   O     0.254491184294   0.633981706405   0.473545974441   
O149   O     0.022426507425   0.670562699152   0.090219067579   
O150   O     0.077888627705   0.981302765775   0.835225415016   
O151   O     0.403710333662   0.555494791078   0.612740772571   
O152   O     0.019042305106   0.828220102864   0.392422757721   
O153   O     0.146852177425   0.852252011794   0.323430503586   
O154   O     0.064768994713   0.798174998131   0.112854129573   
O155   O     0.218906924739   0.910787909463   0.292642711642   
O156   O     0.132315576126   0.817111120704   0.915492073439   
O157   O     0.261771399655   0.539839059509   0.203644555647   
O158   O     0.091103650264   0.880344164055   0.436402981196   
O159   O     0.079836174687   0.615220902511   0.925893447077   
O160   O     0.377519450816   0.705659229081   0.024890282949   
O161   O     0.340177079514   0.628379154438   0.013962844993   
O162   O     0.329087964806   0.597281820769   0.815283767162   
O163   O     0.074477908968   0.647001305544   0.734241314782   
O164   O     0.208954385807   0.689327671135   0.593470280168   
O165   O     0.028531778621   0.732288434239   0.226518467188   
O166   O     0.132360798436   0.654635591410   0.609517499911   
O167   O     0.459653252220   0.583559543598   0.960552363736   
O168   O     0.256009394027   0.821405452794   0.852289514214   
O169   O     0.174881098761   0.805682128098   0.319455756985   
O170   O     0.335356490399   0.768860272894   0.060843765961   
O171   O     0.416008717654   0.716657638890   0.210292953060   
O172   O     0.060153629687   0.851037587154   0.997726270041   
O173   O     0.141980144920   0.672466130695   0.293379941957   
O174   O     0.224784156959   0.845645065599   0.710060876387   
O175   O     0.123360609162   0.960039418756   0.733093663308   
O176   O     0.374213638114   0.642939143529   0.438115241285   
O177   O     0.042571307318   0.760744640234   0.635346847985   
O178   O     0.178485600392   0.972386207465   0.069979700005   
O179   O     0.261518112739   0.717172505202   0.025846546160   
O180   O     0.227208830256   0.788176517916   0.108940882182   
O181   O     0.181963782127   0.949251369533   0.782798966769   
O182   O     0.310495809519   0.756996146021   0.862483725184   
O183   O     0.269888692424   0.895199081394   0.859956037508   
O184   O     0.304462872062   0.740748987446   0.251393809332   
O185   O     0.286962893333   0.792159564240   0.996147551420   
O186   O     0.454542293549   0.681864479509   0.262234093204   
O187   O     0.102236485723   0.779213885685   0.254584884303   
O188   O     0.273755510881   0.684266572651   0.796192678220   
O189   O     0.108595703011   0.916458476607   0.093997729160   
O190   O     0.371444446754   0.746009803006   0.193465207298   
O191   O     0.111073771165   0.707666726308   0.604974777608   
O192   O     0.038932610693   0.960543920203   0.066600559771   
O193   O     0.328974359876   0.667488570634   0.500785897132   
O194   O     0.289645758158   0.833611262409   0.489329860787   
O195   O     0.200936306671   0.690291066981   0.157951932927   
O196   O     0.341294017933   0.553079752681   0.691575462854   
O197   O     0.165636294833   0.909414857428   0.179213555834   
O198   O     0.034627801402   0.894646196714   0.071985314351   
O199   O     0.240541797666   0.567586409120   0.379170213639   
O200   O     0.157239227793   0.831325892068   0.131422474841   
O201   O     0.248988473740   0.619257706371   0.903130921388   
O202   O     0.487016052974   0.719128045053   0.920278311757   
O203   O     0.346859180951   0.567416909738   0.988230735033   
O204   O     0.050341088577   0.956849202331   0.491924160309   
O205   O     0.344058909975   0.734827828716   0.718049412602   
O206   O     0.284182888303   0.629647450704   0.706194937743   
O207   O     0.083758585622   0.678255797233   0.400876541505   
O208   O     0.801254379560   0.903390615520   0.633215683007   
O209   O     0.928833413432   0.858732479286   0.309329689730   
O210   O     0.563274513913   0.722531706231   0.080369763001   
O211   O     0.777914279333   0.848620842353   0.983131603596   
O212   O     0.679199522361   0.742126444290   0.912385190891   
O213   O     0.728187401611   0.743983596275   0.535090353536   
O214   O     0.931592876833   0.004617917647   0.031178787916   
O215   O     0.620817056808   0.610198124322   0.667966739166   
O216   O     0.564880585167   0.552647902297   0.102493513125   
O217   O     0.905399577037   0.938978341988   0.415740618744   
O218   O     0.944235211320   0.887783227703   0.761372135359   
O219   O     0.919190249433   0.838923931029   0.589724007246   
O220   O     0.878254968192   0.762978026026   0.819824513872   
O221   O     0.630306555440   0.624609973870   0.455060459172   
O222   O     0.649856569928   0.776679764025   0.027526480867   
O223   O     0.823629513697   0.888379686171   0.244489558262   
O224   O     0.788451186907   0.819122890920   0.161309871137   
O225   O     0.659374490574   0.721806190202   0.120734684651   
O226   O     0.896743945893   0.793243405904   0.413092679960   
O227   O     0.584710977813   0.677404383327   0.977175888747   
O228   O     0.937163718457   0.830763875549   0.888165651364   
O229   O     0.888225094056   0.795775711682   0.194300940842   
O230   O     0.522171676392   0.544437810216   0.541585308905   
O231   O     0.791802659116   0.932126297708   0.245183357018   
O232   O     0.677132123175   0.798927332319   0.514352558717   
O233   O     0.658990488983   0.829807230132   0.679622229603   
O234   O     0.983854090658   0.905093061554   0.578080904661   
O235   O     0.805223144859   0.728736043731   0.438708743961   
O236   O     0.636177240802   0.738226596283   0.391721926598   
O237   O     0.554778423676   0.604150861611   0.993290034938   
O238   O     0.845829382899   0.979410893124   0.615519114680   
O239   O     0.704811365074   0.687570519802   0.922611796357   
O240   O     0.970421019127   0.965503740355   0.048760991416   
O241   O     0.583139705153   0.758060092338   0.446578774555   
O242   O     0.753749653400   0.712993294754   0.679079551379   
O243   O     0.758394029777   0.748827264369   0.335679311384   
O244   O     0.868202565649   0.765959237553   0.606776128520   
O245   O     0.623254388619   0.709328377239   0.762934255237   
O246   O     0.512364553065   0.569210683133   0.166667231840   
O247   O     0.911934011953   0.875773751222   0.959320454829   
O248   O     0.923381408599   0.959804114866   0.205970594573   
O249   O     0.626342297884   0.648994648923   0.066320398928   
O250   O     0.680024642911   0.780363857805   0.729261371009   
O251   O     0.918169551208   0.904120854953   0.582178580454   
O252   O     0.695545440731   0.724100310792   0.729729124071   
O253   O     0.895389069614   0.930715801608   0.007744198223   
O254   O     0.882173598645   0.711654063267   0.686121507352   
O255   O     0.573456073242   0.625021412598   0.344886939807   
O256   O     0.745819740901   0.666083001656   0.040364379159   
O257   O     0.712929295858   0.777464976039   0.372564656192   
O258   O     0.566175719536   0.666807019592   0.185589853428   
O259   O     0.534219750190   0.766975360788   0.104764653703   
O260   O     0.985938687793   0.903366442060   0.943046234164   
O261   O     0.612009294833   0.639293893618   0.853832091598   
O262   O     0.553387730810   0.654770364533   0.673856068076   
O263   O     0.685417384167   0.670096453234   0.590943755141   
O264   O     0.529842553401   0.722331948854   0.273298067650   
O265   O     0.619565334120   0.670289843528   0.584997142616   
O266   O     0.786573848224   0.845310441732   0.769317842678   
O267   O     0.503649356561   0.638929590445   0.821192325709   
O268   O     0.668923765096   0.804819623432   0.295389729389   
O269   O     0.835385820062   0.778409062880   0.037724530367   
O270   O     0.001831820347   0.900354075011   0.366343021844   
O271   O     0.593026683242   0.565086461033   0.846331126527   
O272   O     0.643570780714   0.668825776171   0.277666549001   
O273   O     0.979216145290   0.900843660745   0.160754700775   
O274   O     0.731418392478   0.845961816899   0.647692262179   
O275   O     0.764412435161   0.873469598292   0.384614079355   
O276   O     0.529857192849   0.752485028734   0.609775162827   
O277   O     0.971024922785   0.001106480774   0.370615928597   
O278   O     0.759872390084   0.739572817294   0.047331216515   
O279   O     0.719051440500   0.787579384400   0.080389629332   
O280   O     0.752213181166   0.858228487819   0.175027327021   
O281   O     0.504496377059   0.531925089620   0.974134267148   
O282   O     0.792848947873   0.732635074153   0.871405579005   
O283   O     0.955196408399   0.810826810975   0.280150170026   
O284   O     0.759366687534   0.893262363341   0.814883650633   
O285   O     0.814179975390   0.744461465211   0.232085904340   
O286   O     0.794161638689   0.796849370336   0.901674173172   
O287   O     0.665820063524   0.619236303576   0.840665900551   
O288   O     0.878498164058   0.938212779724   0.616876759164   
O289   O     0.962004152166   0.933948660459   0.323240872615   
O290   O     0.596793040103   0.779106921539   0.226944670994   
O291   O     0.752006933736   0.659255157760   0.813819254869   
O292   O     0.842355260987   0.940417866140   0.802207803755   
O293   O     0.612673826558   0.591582797362   0.268000560014   
O294   O     0.859783425280   0.730644717895   0.098760645107   
O295   O     0.597352420178   0.720886875644   0.580895608015   
O296   O     0.847166601757   0.875938752368   0.497695035699   
O297   O     0.500579604207   0.677060884151   0.644313880245   
O298   O     0.783632323821   0.810392978806   0.462071740076   
O299   O     0.698436276964   0.684164401993   0.141447731927   
O300   O     0.511214047555   0.651097185714   0.036202839341   
O301   O     0.849024636938   0.812128154305   0.511608213603   
O302   O     0.459478359811   0.461860242052   0.902812200898   
O303   O     0.655133906410   0.836971346088   0.119354611903   
O304   O     0.946618143743   0.782676405809   0.755503261836   
O305   O     0.846526393734   0.870084308628   0.902261576171   
O306   O     0.841260672867   0.836388802051   0.316294994283   
O307   O     0.507174918485   0.618335826432   0.304481547071   
O308   O     0.815956134804   0.707200687592   0.712182772647   
O309   O     0.862649025346   0.865059687829   0.116732424319   
O310   O     0.563171406360   0.683553013071   0.396232912399   
O311   O     0.002125139438   0.110482846637   0.265956594402   
O312   O     0.040593015569   0.173838950918   0.381970887185   
O313   O     0.188272592974   0.406013785675   0.879414594413   
O314   O     0.056095352824   0.158320185176   0.725796475858   
O315   O     0.309103018208   0.212488709412   0.653963936372   
O316   O     0.056957819952   0.212228636895   0.034002399882   
O317   O     0.055140861210   0.622669527429   0.125495007295   
O318   O     0.277500959317   0.561513665015   0.964319246133   
O319   O     0.263490712829   0.918516042309   0.058460663909   
O320   O     0.236552972966   0.697694430059   0.352887898285   
O321   O     0.299990643902   0.872883709392   0.701153665578   
O322   O     0.270827287526   0.544383085081   0.694812043559   
O323   O     0.046481369960   0.697362788674   0.879766080064   
O324   O     0.634799198178   0.846281202848   0.319788700611   
O325   O     0.750994739896   0.680679200536   0.300481592251   
O326   O     0.138545222956   0.992119242363   0.934158005521   
O327   O     0.189540794857   0.995351552252   0.621240270637   
O328   O     0.336747593046   0.289112063822   0.997121791357   
O329   O     0.929738142841   0.766900605918   0.969416339033   
O330   O     0.406032732965   0.381749585197   0.982610974439   
O331   O     0.125068823708   0.327721969367   0.923595664505   
O332   O     0.006807375611   0.047168101157   0.950882715365   
O333   O     0.705237675958   0.841745227460   0.961991014876   
O334   O     0.632824850012   0.824289975707   0.912030902038   
O335   O     0.975676732503   0.759003924695   0.301128696002   
Si1   Si     0.327633352678   0.445962668791   0.726952314589   
Si2   Si     0.209842381226   0.215266016905   0.643140396760   
Si3   Si     0.168195883517   0.260810484869   0.050882711678   
Si4   Si     0.171862532518   0.286945058627   0.401157586086   
Si5   Si     0.094319659917   0.043600722533   0.317680776596   
Si6   Si     0.053433035017   0.997460715167   0.529242617546   
Si7   Si     0.249307268442   0.327380995481   0.112658102431   
Si8   Si     0.094907135543   0.134266416907   0.981508672697   
Si9   Si     0.109975698363   0.127233124040   0.337423796189   
Si10   Si     0.154781180787   0.186659969258   0.144383696355   
Si11   Si     0.137575179027   0.145420240361   0.582455819025   
Si12   Si     0.045311149491   0.145404375224   0.298661684755   
Si13   Si     0.216691970001   0.390899712185   0.919827454550   
Si14   Si     0.425261000341   0.442033066235   0.418720543769   
Si15   Si     0.291879370493   0.405249253111   0.190588074910   
Si16   Si     0.369314168757   0.383116562396   0.033520895089   
Si17   Si     0.234487162165   0.267234852385   0.440208614270   
Si18   Si     0.365899157896   0.408122039050   0.593882913541   
Si19   Si     0.095589201885   0.189516385180   0.668991857723   
Si20   Si     0.168941749278   0.243417382933   0.797711917985   
Si21   Si     0.257821160622   0.373446039511   0.726563161727   
Si22   Si     0.412175431296   0.458403193486   0.170802179391   
Si23   Si     0.294379737088   0.342845158855   0.892360254128   
Si24   Si     0.122970590283   0.101600562663   0.794801226648   
Si25   Si     0.184674990065   0.313298372920   0.649194061832   
Si26   Si     0.277464792586   0.211200298584   0.739809008624   
Si27   Si     0.320246206762   0.350599450435   0.230999010543   
Si28   Si     0.072188469630   0.013761051424   0.772419758481   
Si29   Si     0.296163896057   0.269162037812   0.930992512266   
Si30   Si     0.237522639056   0.205680437200   0.082565984072   
Si31   Si     0.301987819296   0.448087524680   0.971830106907   
Si32   Si     0.318886597826   0.332746381004   0.479088639763   
Si33   Si     0.068291438494   0.003911721740   0.102198982147   
Si34   Si     0.148919452791   0.324987979476   0.028705420213   
Si35   Si     0.036082737171   0.054267282861   0.053274194032   
Si36   Si     0.050312707355   0.170029288294   0.058777944293   
Si37   Si     0.487120494308   0.573963656785   0.262796794677   
Si38   Si     0.237911527855   0.730464560987   0.648566507446   
Si39   Si     0.268681391958   0.577599327395   0.272475675296   
Si40   Si     0.295286356473   0.669732181756   0.433640252740   
Si41   Si     0.185355279458   0.759439206723   0.051996682159   
Si42   Si     0.184768931739   0.784318038863   0.418972411987   
Si43   Si     0.009009813611   0.915158073643   0.059670339476   
Si44   Si     0.173489805453   0.898082151158   0.300080304842   
Si45   Si     0.490126636855   0.715182179557   0.331756433380   
Si46   Si     0.035309272951   0.812193485420   0.070915946502   
Si47   Si     0.088355698900   0.643060750425   0.029649713297   
Si48   Si     0.158312113964   0.685430557319   0.169704195323   
Si49   Si     0.323966221295   0.588444910688   0.946506378260   
Si50   Si     0.168816198744   0.649974216255   0.575161825541   
Si51   Si     0.358370567255   0.534594063545   0.999463092655   
Si52   Si     0.493590604787   0.710215682680   0.590976183820   
Si53   Si     0.240751738426   0.899096177094   0.945356161019   
Si54   Si     0.133179204181   0.830715012195   0.787165829227   
Si55   Si     0.991607208701   0.804391893963   0.289278641641   
Si56   Si     0.418050495607   0.698495723331   0.716751870202   
Si57   Si     0.067719365457   0.762473904196   0.161750018335   
Si58   Si     0.357608966194   0.529934957571   0.623439323350   
Si59   Si     0.107500180474   0.716208702156   0.475059371026   
Si60   Si     0.461892190521   0.494676310975   0.983731017101   
Si61   Si     0.260132253979   0.789104808861   0.464184940241   
Si62   Si     0.145540134242   0.816466601669   0.257732572592   
Si63   Si     0.116337113692   0.677625016546   0.681174707339   
Si64   Si     0.351705846302   0.646224256521   0.546038381416   
Si65   Si     0.280867413353   0.730341539280   0.366922842688   
Si66   Si     0.050971673717   0.801772360452   0.682436323197   
Si67   Si     0.399928059706   0.736533906018   0.122873402780   
Si68   Si     0.185827223724   0.737783651903   0.807686942132   
Si69   Si     0.430729995566   0.544393564973   0.895175844925   
Si70   Si     0.445445701737   0.560415413650   0.642062394850   
Si71   Si     0.390015596059   0.758915445704   0.745234461422   
Si72   Si     0.263041664041   0.858642819582   0.784278430216   
Si73   Si     0.152066041045   0.925347913380   0.078383457494   
Si74   Si     0.357901908744   0.616001831662   0.329751763697   
Si75   Si     0.105200777609   0.962574380101   0.849394536338   
Si76   Si     0.337636414371   0.667259661886   0.000230454662   
Si77   Si     0.446074876565   0.680738770200   0.935370907168   
Si78   Si     0.399995864358   0.527988223788   0.210160801905   
Si79   Si     0.048049626498   0.854949846724   0.487202300428   
Si80   Si     0.181438974934   0.914659874945   0.852299498641   
Si81   Si     0.017087234263   0.911314578868   0.492326607359   
Si82   Si     0.282073240177   0.649303518146   0.819706167101   
Si83   Si     0.186295244349   0.806931492830   0.672677463685   
Si84   Si     0.317228168145   0.575422431210   0.697520479758   
Si85   Si     0.302913717255   0.728256768608   0.759160244643   
Si86   Si     0.345501827587   0.766249181436   0.190018449775   
Si87   Si     0.297158250438   0.757951069683   0.988179740476   
Si88   Si     0.227279620720   0.587644558698   0.472831046997   
Si89   Si     0.225940389368   0.678470934072   0.074223087502   
Si90   Si     0.070876198303   0.895281521285   0.014256379516   
Si91   Si     0.275882576117   0.648525514840   0.182385853331   
Si92   Si     0.158892210691   0.956213221929   0.682939071274   
Si93   Si     0.164150936795   0.821778045490   0.006260164646   
Si94   Si     0.480959171584   0.526651113855   0.480608350884   
Si95   Si     0.420054104023   0.678687195958   0.186345902932   
Si96   Si     0.481081042861   0.629406797779   0.936530459674   
Si97   Si     0.058314482578   0.698248114615   0.008978339758   
Si98   Si     0.130438661695   0.919215706732   0.467640991417   
Si99   Si     0.347264255323   0.534520416772   0.372505662344   
Si100   Si     0.842608270738   0.940766651038   0.666843234728   
Si101   Si     0.715970272430   0.713007584295   0.632724327653   
Si102   Si     0.676757882321   0.757753072230   0.035777216397   
Si103   Si     0.674791085777   0.780552201516   0.393053754816   
Si104   Si     0.757403502666   0.827922006978   0.099038908660   
Si105   Si     0.509012338661   0.644459919755   0.689586177741   
Si106   Si     0.595068478491   0.643068214413   0.971862280032   
Si107   Si     0.614812219376   0.627005476032   0.333518269297   
Si108   Si     0.656641137497   0.681306489966   0.151383054745   
Si109   Si     0.639173433061   0.643842069745   0.575458128003   
Si110   Si     0.552925896777   0.649272629944   0.308763790636   
Si111   Si     0.939773340973   0.958031949396   0.326340143290   
Si112   Si     0.783225088075   0.888620041569   0.264019836281   
Si113   Si     0.556333350500   0.748143458453   0.170028678815   
Si114   Si     0.879175330415   0.884912665232   0.997609028654   
Si115   Si     0.594718211794   0.724553622810   0.448826184426   
Si116   Si     0.883131035995   0.802487157934   0.529222019113   
Si117   Si     0.745967940953   0.770175730055   0.425367529383   
Si118   Si     0.887583238966   0.913885645780   0.527133191897   
Si119   Si     0.639781482801   0.816946878647   0.238571945977   
Si120   Si     0.597432705571   0.687574642553   0.654600003826   
Si121   Si     0.781522700306   0.725053249267   0.326830583456   
Si122   Si     0.668537169286   0.739331259222   0.781557438463   
Si123   Si     0.861899919488   0.737064528683   0.706634241602   
Si124   Si     0.769823979056   0.871449662555   0.717728519860   
Si125   Si     0.930907449069   0.966311724040   0.073343466142   
Si126   Si     0.917065363486   0.813800937224   0.298484988946   
Si127   Si     0.801082668280   0.839791823026   0.889429063744   
Si128   Si     0.623073770871   0.608219720944   0.801882751856   
Si129   Si     0.944544768833   0.873821989505   0.886935015388   
Si130   Si     0.686768054555   0.813139907516   0.640483637891   
Si131   Si     0.940739008719   0.883200179897   0.628128885184   
Si132   Si     0.777850415472   0.703196378259   0.768585737761   
Si133   Si     0.829502208093   0.852509949643   0.209467766755   
Si134   Si     0.848355488501   0.762132433557   0.143946525845   
Si135   Si     0.796437259725   0.762760269585   0.965208509677   
Si136   Si     0.728237296111   0.694223389985   0.039354860169   
Si137   Si     0.968077697992   0.898714184223   0.288959558562   
Si138   Si     0.829901910181   0.833173583874   0.446806309155   
Si139   Si     0.923087558104   0.786336566288   0.858457907796   
Si140   Si     0.660985116204   0.821194342193   0.000655178314   
Si141   Si     0.533279221539   0.564268777299   0.060228208981   
Si142   Si     0.555834484214   0.679280621621   0.068691592359   
#END
